                                   MODFLOW 6
                U.S. GEOLOGICAL SURVEY MODULAR HYDROLOGIC MODEL
                          GROUNDWATER FLOW MODEL (GWF)
                            VERSION 6.6.0 12/19/2024

   MODFLOW 6 compiled Dec 19 2024 21:59:25 with Intel(R) Fortran Intel(R) 64
   Compiler Classic for applications running on Intel(R) 64, Version 2021.7.0
                             Build 20220726_000000

This software has been approved for release by the U.S. Geological 
Survey (USGS). Although the software has been subjected to rigorous 
review, the USGS reserves the right to update the software as needed 
pursuant to further analysis and review. No warranty, expressed or 
implied, is made by the USGS or the U.S. Government as to the 
functionality of the software and related material nor shall the 
fact of release constitute any such warranty. Furthermore, the 
software is released on condition that neither the USGS nor the U.S. 
Government shall be held liable for any damages resulting from its 
authorized or unauthorized use. Also refer to the USGS Water 
Resources Software User Rights Notice for complete use, copyright, 
and distribution information.


As a work of the United States Government, this USGS product is 
in the public domain within the United States. You can copy, 
modify, distribute, and perform the work, even for commercial 
purposes, all without asking permission. Additionally, USGS 
waives copyright and related rights in the work worldwide 
through CC0 1.0 Universal Public Domain Dedication 
(https://creativecommons.org/publicdomain/zero/1.0/).

The following GNU Lesser General Public License (LGPL) libraries
are used in this USGS product:

    SPARSKIT version 2.0
      ilut, luson, and qsplit 
      (https://www-users.cse.umn.edu/~saad/software/SPARSKIT/)

    RCM - Reverse Cuthill McKee Ordering
      (https://people.math.sc.edu/Burkardt/f_src/rcm/rcm.html)

    BLAS - Basic Linear Algebra Subprograms Level 1
      (https://people.math.sc.edu/Burkardt/f_src/blas1_d/blas1_d.html)

    SPARSEKIT - Sparse Matrix Utility Package
      amux, dperm, dvperm, rperm, and cperm
      (https://people.sc.fsu.edu/~jburkardt/f77_src/sparsekit/sparsekit.html)

The following BSD-3 License libraries are used in this USGS product:

    Modern Fortran DAG Library
      Copyright (c) 2018, Jacob Williams
      All rights reserved.
      (https://github.com/jacobwilliams/daglib)

MODFLOW 6 compiler options: /Isrc\libmf6core.a.p /Isrc /I..\src
/Isrc\libmf6_external.a.p /MTd /nologo /warn:general /warn:truncated_source
/stand:f08 /Zi /traceback /O2 /fpe:0 /heap-arrays:0 /traceback /fpp
/Qdiag-disable:7416 /Qdiag-disable:7025 /Qdiag-disable:5268
/Qdiag-disable:10448 /Fdsrc\libmf6core.a.p\Utilities_compilerversion.F90.pdb
/module:src\libmf6core.a.p
/Fosrc/libmf6core.a.p/Utilities_compilerversion.F90.obj /c

System command used to initiate simulation:
"C:\Program Files\Groundwater Vistas\mf6.exe"

MODFLOW was compiled using uniform precision.

Real Variables
  KIND: 8
  TINY (smallest non-zero value):    2.225074-308
  HUGE (largest value):    1.797693+308
  PRECISION: 15
  SIZE IN BITS: 64

Integer Variables
  KIND: 4
  HUGE (largest value): 2147483647
  SIZE IN BITS: 32

Long Integer Variables
  KIND: 8
  HUGE (largest value): 9223372036854775807
  SIZE IN BITS: 64

Logical Variables
  KIND: 4
  SIZE IN BITS: 32
 
 NAMEFILE OPTIONS:
    NEWTON-RAPHSON method enabled for the model.
    FLOWS WILL BE SAVED TO BUDGET FILE SPECIFIED IN OUTPUT CONTROL
 END NAMEFILE OPTIONS:

 DIS -- STRUCTURED GRID DISCRETIZATION PACKAGE, VERSION 2 : 3/27/2014 - INPUT READ FROM MEMPATH: __INPUT__/FP_MF6_MODEL/DIS                        


 NPF -- NODE PROPERTY FLOW PACKAGE, VERSION 1, 3/30/2015 INPUT READ FROM MEMPATH: __INPUT__/FP_MF6_MODEL/NPF                        


 IC -- Initial Conditions Package, Version 8, 3/28/2015 input read from mempath: __INPUT__/FP_MF6_MODEL/IC                         


 Setting Discretization Options
    Model length unit [0=UND, 1=FEET, 2=METERS, 3=CENTIMETERS] set as 2
    XORIGIN = .000000000000000
    YORIGIN = .000000000000000
 End Setting Discretization Options

 Setting Discretization Dimensions
    NLAY = 1
    NROW = 400
    NCOL = 200
 End Setting Discretization Dimensions

 Setting Discretization Griddata
    DELR set from input file
    DELC set from input file
    TOP set from input file
    BOTM set from input file
    IDOMAIN set from input file
 End Setting Discretization Griddata


 The specified IDOMAIN results in a reduced number of cells.
 Number of user nodes: 80000
 Number of nodes in solution: 70500


 Setting NPF Options
    Cell-by-cell flow information will be saved to binary file whenever ICBCFL is not zero.
    Specific discharge will be calculated at cell centers and written to DATA-SPDIS in budget file when requested.
    Saturation will be written to DATA-SAT in budget file when requested.
    Values specified for K33 are anisotropy ratios and will be multiplied by K before being used in calculations.
 End Setting NPF Options

 Setting NPF Griddata
    ICELLTYPE set from input file
    K set from input file
    K33 set from input file
    K22 not provided.  Setting K22 = K.
 End Setting NPF Griddata


 WEL   -- WEL PACKAGE, VERSION 8, 2/22/2014 INPUT READ FROM MEMPATH: __INPUT__/FP_MF6_MODEL/WEL_0                      

 PROCESSING WEL BASE OPTIONS
    FLOWS WILL BE SAVED TO BUDGET FILE SPECIFIED IN OUTPUT CONTROL
 END OF WEL BASE OPTIONS

 PROCESSING WEL OPTIONS
 END OF WEL OPTIONS

 PROCESSING WEL BASE DIMENSIONS
    MAXBOUND =       6
 END OF WEL BASE DIMENSIONS

 RIV   -- RIV PACKAGE, VERSION 8, 2/22/2014 INPUT READ FROM MEMPATH: __INPUT__/FP_MF6_MODEL/RIV_0                      

 PROCESSING RIV BASE OPTIONS
    FLOWS WILL BE SAVED TO BUDGET FILE SPECIFIED IN OUTPUT CONTROL
 END OF RIV BASE OPTIONS

 PROCESSING RIV OPTIONS
 END OF RIV OPTIONS

 PROCESSING RIV BASE DIMENSIONS
    MAXBOUND =     400
 END OF RIV BASE DIMENSIONS

 GHB   -- GHB PACKAGE, VERSION 8, 2/22/2014 INPUT READ FROM MEMPATH: __INPUT__/FP_MF6_MODEL/GHB_0                      

 PROCESSING GHB BASE OPTIONS
 END OF GHB BASE OPTIONS

 PROCESSING GHB OPTIONS
 END OF GHB OPTIONS

 PROCESSING GHB BASE DIMENSIONS
    MAXBOUND =      99
 END OF GHB BASE DIMENSIONS

 RCH   -- RCH PACKAGE, VERSION 8, 2/22/2014 INPUT READ FROM MEMPATH: __INPUT__/FP_MF6_MODEL/RCHA_0                     

 PROCESSING RCH BASE OPTIONS
    FLOWS WILL BE SAVED TO BUDGET FILE SPECIFIED IN OUTPUT CONTROL
 END OF RCH BASE OPTIONS

 PROCESSING RCHA OPTIONS
    RECHARGE INPUT WILL BE READ AS ARRAY(S).
 END OF RCHA OPTIONS
    STRT set from input file
    BINARY GRID INFORMATION WILL BE WRITTEN TO:
      UNIT NUMBER: 1026
      FILE NAME: fp_mf6_model.dis.grb

 OPENED fp_mf6_model.dis.grb
 FILE TYPE:DATA(BINARY)   UNIT 1026   STATUS:REPLACE             
 FORMAT:UNFORMATTED            ACCESS:STREAM              
 ACTION:READWRITE           

      THE LAST TIME STEP WILL BE PRINTED
      THE LAST TIME STEP WILL BE PRINTED
 # File generated by Flopy version 3.8.0 on 01/30/2025 at 14:22:46.

 PROCESSING OC OPTIONS

    BUDGET INFORMATION WILL BE WRITTEN TO:
      UNIT NUMBER: 1027
      FILE NAME: fp_mf6_model.cbc

 OPENED fp_mf6_model.cbc
 FILE TYPE:DATA(BINARY)   UNIT 1027   STATUS:REPLACE             
 FORMAT:UNFORMATTED            ACCESS:STREAM              
 ACTION:READWRITE           

    HEAD INFORMATION WILL BE WRITTEN TO:
      UNIT NUMBER: 1028
      FILE NAME: fp_mf6_model.hds

 OPENED fp_mf6_model.hds
 FILE TYPE:DATA(BINARY)   UNIT 1028   STATUS:REPLACE             
 FORMAT:UNFORMATTED            ACCESS:STREAM              
 ACTION:READWRITE           

 END OF OC OPTIONS

start timestep kper="1" kstp="1" mode="normal"


 BEGIN READING OUTPUT CONTROL FOR STRESS PERIOD 1
      ALL TIME STEPS WILL BE SAVED
      ALL TIME STEPS WILL BE SAVED

 END READING OUTPUT CONTROL FOR STRESS PERIOD 1

 SLN_1 INNER ITERATION SUMMARY
 --------------------------------------------------------------------------------------------------------------------------------------
      TOTAL      OUTER      INNER                                                            MAXIMUM                                   
  ITERATION  ITERATION  ITERATION  MAXIMUM CHANGE      MAXIMUM CHANGE MODEL-(CELLID)        RESIDUAL    MAXIMUM RESIDUAL MODEL-(CELLID)
 --------------------------------------------------------------------------------------------------------------------------------------
          1          1          1      -178.07047                  1_GWF-(1,400,150)      -2247.5886                  1_GWF-(1,400,147)
          2          1          2     -0.35664354                  1_GWF-(1,397,139)      -11.131133                  1_GWF-(1,400,147)
          3          1          3 -4.25296189E-04                  1_GWF-(1,392,132) -1.70265967E-02                  1_GWF-(1,400,147)
          4          2          1      -61.677879                  1_GWF-(1,397,147)       2799.3494                  1_GWF-(1,393,140)
          5          2          2      -22.248887                  1_GWF-(1,391,139)      -1070.6097                  1_GWF-(1,398,148)
          6          2          3      -15.575954                  1_GWF-(1,387,135)       545.25250                  1_GWF-(1,381,131)
          7          2          4      -13.227669                  1_GWF-(1,383,132)       360.85947                  1_GWF-(1,375,124)
          8          2          5      -11.184257                  1_GWF-(1,379,129)       264.74441                  1_GWF-(1,369,123)
          9          2          6      -9.4314989                  1_GWF-(1,374,126)       202.08118                  1_GWF-(1,363,116)
         10          2          7      -9.0445428                  1_GWF-(1,369,123)       159.18114                  1_GWF-(1,357,111)
         11          2          8     -0.55641203                  1_GWF-(1,355,108)      -172.53594                   1_GWF-(1,393,53)
         12          2          9      -9.6869808                  1_GWF-(1,357,115)      -223.06972                   1_GWF-(1,394,53)
         13          2         10      -4.1041903                  1_GWF-(1,352,115)       63.406234                  1_GWF-(1,336,101)
         14          2         11      -3.8318267                  1_GWF-(1,367,187)       51.071167                  1_GWF-(1,347,196)
         15          2         12      -2.8598903                  1_GWF-(1,366,187)       44.190114                  1_GWF-(1,341,196)
         16          2         13      -2.7624251                  1_GWF-(1,348,194)       61.337114                   1_GWF-(1,392,53)
         17          2         14      -2.0886718                  1_GWF-(1,347,196)       26.874057                  1_GWF-(1,327,196)
         18          2         15      -2.0601308                  1_GWF-(1,337,197)       44.493766                   1_GWF-(1,391,53)
         19          2         16      -1.4800488                  1_GWF-(1,334,196)       19.136994                   1_GWF-(1,212,64)
         20          2         17      -1.4045985                  1_GWF-(1,325,196)       14.485302                   1_GWF-(1,212,64)
         21          2         18      0.22142292                  1_GWF-(1,344,106)      -20.716957                   1_GWF-(1,389,53)
         22          2         19     -0.73988667                  1_GWF-(1,311,195)       8.9449301                   1_GWF-(1,212,64)
         23          2         20     -0.43051345                  1_GWF-(1,304,195)       6.5791286                   1_GWF-(1,212,64)
         24          2         21     -0.29091594                  1_GWF-(1,298,194)       5.0745139                   1_GWF-(1,231,61)
         25          2         22     -0.22105150                   1_GWF-(1,281,60)       4.1804734                    1_GWF-(1,294,4)
         26          2         23     -0.21112701                   1_GWF-(1,276,57)       3.7767851                    1_GWF-(1,288,4)
         27          2         24     -0.20011593                   1_GWF-(1,274,55)       3.3669120                    1_GWF-(1,281,4)
         28          2         25 -6.01648022E-02                   1_GWF-(1,280,10)       3.1141996                    1_GWF-(1,281,4)
         29          2         26     -0.23333182                   1_GWF-(1,284,16)       2.5252131                   1_GWF-(1,384,53)
         30          2         27     -0.10718697                   1_GWF-(1,283,12)       1.9749679                    1_GWF-(1,267,4)
         31          2         28 -9.19401002E-02                    1_GWF-(1,279,9)       1.7233325                      1_GWF-(1,2,4)
         32          2         29 -8.31507670E-02                    1_GWF-(1,275,8)       1.4777981                      1_GWF-(1,2,4)
         33          2         30 -8.02813842E-02                    1_GWF-(1,271,8)       1.2095167                      1_GWF-(1,2,4)
         34          2         31  4.23869157E-02                    1_GWF-(1,267,7)       1.3656745                      1_GWF-(1,2,4)
         35          2         32     -0.28608553                    1_GWF-(1,248,7)      0.54077949                    1_GWF-(1,2,124)
         36          2         33 -2.24618935E-02                   1_GWF-(1,275,61)      0.19910627                    1_GWF-(1,167,4)
         37          2         34  3.40905436E-03                  1_GWF-(1,216,193)      0.18512987                    1_GWF-(1,166,4)
         38          2         35 -2.25030517E-03                   1_GWF-(1,271,62)      0.17877817                    1_GWF-(1,166,4)
         39          2         36 -2.05011618E-02                   1_GWF-(1,167,23)      0.19735850                    1_GWF-(1,16,99)
         40          2         37  1.31949841E-02                   1_GWF-(1,166,21)      0.14625931                    1_GWF-(1,158,4)
         41          2         38 -7.90345120E-03                   1_GWF-(1,165,21)      0.12140676                    1_GWF-(1,156,4)
         42          2         39 -3.81974244E-02                   1_GWF-(1,149,21)  2.44071062E-02                   1_GWF-(1,222,46)
         43          3          1      -26.525480                  1_GWF-(1,397,150)       788.50664                  1_GWF-(1,394,144)
         44          3          2      -9.5311105                  1_GWF-(1,393,140)       331.04350                  1_GWF-(1,389,136)
         45          3          3      -8.7236220                  1_GWF-(1,388,134)       201.58405                  1_GWF-(1,376,129)
         46          3          4      -11.297996                  1_GWF-(1,384,127)       151.46870                  1_GWF-(1,374,123)
         47          3          5      -16.830315                  1_GWF-(1,379,121)       131.74834                  1_GWF-(1,363,130)
         48          3          6       5.5751051                  1_GWF-(1,379,119)       120.60401                   1_GWF-(1,366,97)
         49          3          7      -23.033362                  1_GWF-(1,363,130)       75.544217                  1_GWF-(1,344,120)
         50          3          8      -8.1665414                  1_GWF-(1,349,130)       69.258023                  1_GWF-(1,335,106)
         51          3          9      -6.8354981                  1_GWF-(1,368,187)       58.353611                  1_GWF-(1,331,105)
         52          3         10      -6.4630797                  1_GWF-(1,361,187)       50.885331                  1_GWF-(1,337,196)
         53          3         11      -5.8671951                  1_GWF-(1,349,194)      -51.185547                  1_GWF-(1,374,110)
         54          3         12      -5.2303240                  1_GWF-(1,346,198)      -46.499775                  1_GWF-(1,371,110)
         55          3         13      -5.0093527                  1_GWF-(1,338,198)       42.825720                   1_GWF-(1,212,64)
         56          3         14      -4.0912008                  1_GWF-(1,329,197)       38.557766                   1_GWF-(1,212,64)
         57          3         15      -4.1332929                  1_GWF-(1,322,197)       32.987295                   1_GWF-(1,212,64)
         58          3         16      0.60849103                  1_GWF-(1,354,111)      -31.809439                  1_GWF-(1,355,108)
         59          3         17      -2.8822863                  1_GWF-(1,308,197)       25.016251                   1_GWF-(1,212,64)
         60          3         18      -1.7340847                  1_GWF-(1,300,197)       22.127669                    1_GWF-(1,301,4)
         61          3         19      -1.3281452                   1_GWF-(1,286,61)       21.447696                    1_GWF-(1,295,4)
         62          3         20      -1.1833210                   1_GWF-(1,282,59)       20.626509                    1_GWF-(1,289,4)
         63          3         21      -1.1162044                   1_GWF-(1,280,52)       19.687079                    1_GWF-(1,283,4)
         64          3         22      -1.1114651                    1_GWF-(1,297,8)       18.529428                    1_GWF-(1,277,4)
         65          3         23      -1.4125346                    1_GWF-(1,293,7)       17.027905                    1_GWF-(1,270,4)
         66          3         24     -0.24948375                    1_GWF-(1,270,5)       16.340128                    1_GWF-(1,269,4)
         67          3         25      -1.5906849                    1_GWF-(1,284,6)       14.670992                      1_GWF-(1,2,4)
         68          3         26      -1.2134032                    1_GWF-(1,279,6)       13.524148                      1_GWF-(1,2,4)
         69          3         27      -1.0368271                    1_GWF-(1,274,5)       12.294069                      1_GWF-(1,2,4)
         70          3         28     -0.89819503                    1_GWF-(1,268,5)       11.022183                      1_GWF-(1,2,4)
         71          3         29     -0.88495804                    1_GWF-(1,263,5)       9.6227769                      1_GWF-(1,2,4)
         72          3         30     -0.90175657                    1_GWF-(1,259,5)       8.1344980                      1_GWF-(1,2,4)
         73          3         31     -0.97354141                    1_GWF-(1,252,5)       7.0783087                    1_GWF-(1,209,4)
         74          3         32     -0.19035146                    1_GWF-(1,207,9)       6.7029821                    1_GWF-(1,206,4)
         75          3         33     -0.65938337                    1_GWF-(1,237,6)       6.1846265                    1_GWF-(1,196,4)
         76          3         34      -1.3788239                    1_GWF-(1,233,6)       5.6200965                    1_GWF-(1,176,4)
         77          3         35      -1.4269056                   1_GWF-(1,175,19)       4.5366545                   1_GWF-(1,341,55)
         78          3         36     -0.38875325                   1_GWF-(1,170,21)       3.6136622                    1_GWF-(1,146,4)
         79          3         37     -0.22445029                   1_GWF-(1,156,20)       3.3855560                    1_GWF-(1,142,4)
         80          3         38  1.68020330E-02                   1_GWF-(1,169,21)       3.3972934                    1_GWF-(1,142,4)
         81          3         39     -0.48338483                   1_GWF-(1,159,21)       3.0153244                    1_GWF-(1,133,4)
         82          3         40     -0.36083476                   1_GWF-(1,136,18)       2.6023336                    1_GWF-(1,129,4)
         83          3         41     -0.32385143                   1_GWF-(1,144,20)       2.3145761                    1_GWF-(1,126,4)
         84          3         42       3.0863640                   1_GWF-(1,144,20)       5.1485375                    1_GWF-(1,139,4)
         85          3         43      -3.5426460                   1_GWF-(1,144,20)       1.9103848                    1_GWF-(1,122,4)
         86          3         44 -9.67604644E-02                   1_GWF-(1,116,14)       1.7494695                    1_GWF-(1,130,4)
         87          3         45     -0.45932346                   1_GWF-(1,139,20)       1.3315944                    1_GWF-(1,130,4)
         88          3         46     -0.16466385                   1_GWF-(1,135,19)       1.1733131                    1_GWF-(1,131,4)
         89          3         47  3.05502258E-02                   1_GWF-(1,149,20)       1.1984246                    1_GWF-(1,133,4)
         90          3         48     -0.26471212                   1_GWF-(1,138,20)      0.95295381                    1_GWF-(1,133,4)
         91          3         49 -8.58854810E-02                   1_GWF-(1,134,19)      0.86932120                    1_GWF-(1,134,4)
         92          3         50  2.08629826E-02                   1_GWF-(1,137,19)      0.88893497                    1_GWF-(1,134,4)
         93          3         51     -0.27567266                   1_GWF-(1,137,19)      0.62840671                    1_GWF-(1,134,4)
         94          3         52 -1.57397507E-03                   1_GWF-(1,133,19)      0.62673319                    1_GWF-(1,134,4)
         95          3         53      -802.95752                   1_GWF-(1,136,19)      -769.21801                    1_GWF-(1,133,4)
         96          3         54       802.42288                   1_GWF-(1,136,19)      0.21722516                   1_GWF-(1,258,17)
         97          3         55      0.14862975                      1_GWF-(1,2,5)      0.58665296                   1_GWF-(1,258,15)
         98          3         56 -6.75856014E-02                      1_GWF-(1,2,5)      0.36047686                      1_GWF-(1,2,4)
         99          3         57     -0.14322757                      1_GWF-(1,2,5)  9.22670905E-02                    1_GWF-(1,45,12)
        100          3         58 -1.77041438E-04                     1_GWF-(1,44,1)  6.08389550E-02                      1_GWF-(1,2,4)
        101          4          1      -24.908709                  1_GWF-(1,397,150)       727.34089                  1_GWF-(1,394,144)
        102          4          2      -8.9869352                  1_GWF-(1,393,140)       304.18319                  1_GWF-(1,389,136)
        103          4          3      -8.2371941                  1_GWF-(1,389,134)       184.57225                  1_GWF-(1,376,129)
        104          4          4      -10.814044                  1_GWF-(1,384,127)       135.82932                  1_GWF-(1,374,123)
        105          4          5      -16.948621                  1_GWF-(1,379,120)       122.10577                  1_GWF-(1,366,157)
        106          4          6       1.7127151                  1_GWF-(1,379,120)       99.232937                   1_GWF-(1,363,96)
        107          4          7      -18.546749                  1_GWF-(1,362,130)       75.973850                  1_GWF-(1,344,126)
        108          4          8      -7.9753144                  1_GWF-(1,351,130)       61.584389                  1_GWF-(1,336,106)
        109          4          9      -6.7749343                  1_GWF-(1,366,187)       55.153991                  1_GWF-(1,331,105)
        110          4         10      -5.8812556                  1_GWF-(1,361,187)      -47.908155                  1_GWF-(1,379,116)
        111          4         11      -5.6327388                  1_GWF-(1,348,197)      -52.579279                  1_GWF-(1,371,109)
        112          4         12      -4.5491977                  1_GWF-(1,344,197)       42.159801                   1_GWF-(1,212,64)
        113          4         13      -4.4492615                  1_GWF-(1,334,197)      -38.585653                  1_GWF-(1,366,110)
        114          4         14      -3.5246023                  1_GWF-(1,328,197)       34.051214                   1_GWF-(1,212,64)
        115          4         15      -3.6426838                  1_GWF-(1,320,197)       28.585503                   1_GWF-(1,212,64)
        116          4         16      0.49382445                  1_GWF-(1,352,111)      -28.257758                  1_GWF-(1,353,107)
        117          4         17      -2.3565532                  1_GWF-(1,306,197)       21.975793                   1_GWF-(1,212,64)
        118          4         18      -1.4690106                  1_GWF-(1,298,197)       20.285412                    1_GWF-(1,301,4)
        119          4         19      -1.2248386                   1_GWF-(1,286,61)       19.571096                    1_GWF-(1,294,4)
        120          4         20      -1.0750677                   1_GWF-(1,282,57)       18.747001                    1_GWF-(1,289,4)
        121          4         21      -1.0121485                   1_GWF-(1,281,51)       17.805480                    1_GWF-(1,283,4)
        122          4         22      -1.0340696                    1_GWF-(1,297,7)       16.661820                    1_GWF-(1,277,4)
        123          4         23      -1.4647358                    1_GWF-(1,292,7)       15.042475                    1_GWF-(1,268,4)
        124          4         24     -0.81872730                    1_GWF-(1,267,5)       13.169468                      1_GWF-(1,2,4)
        125          4         25      -1.1728732                    1_GWF-(1,281,6)       12.087744                      1_GWF-(1,2,4)
        126          4         26      -1.0975823                    1_GWF-(1,274,6)       10.756377                      1_GWF-(1,2,4)
        127          4         27     -0.82545200                    1_GWF-(1,272,5)       9.7101953                      1_GWF-(1,2,4)
        128          4         28     -0.83099373                    1_GWF-(1,259,5)       8.3833366                      1_GWF-(1,2,4)
        129          4         29     -0.66860506                    1_GWF-(1,261,5)       7.3919498                      1_GWF-(1,2,4)
        130          4         30     -0.70331471                    1_GWF-(1,253,6)       6.2712063                      1_GWF-(1,2,4)
        131          4         31     -0.89840886                    1_GWF-(1,248,6)       5.5302589                    1_GWF-(1,197,4)
        132          4         32     -0.50434095                   1_GWF-(1,193,12)       4.7930724                    1_GWF-(1,185,4)
        133          4         33     -0.46614704                    1_GWF-(1,230,7)       4.5513447                    1_GWF-(1,177,4)
        134          4         34     -0.46555477                   1_GWF-(1,204,11)       4.2147699                    1_GWF-(1,170,4)
        135          4         35     -0.37822353                   1_GWF-(1,208,10)       3.9919500                    1_GWF-(1,165,4)
        136          4         36     -0.36015679                   1_GWF-(1,194,14)       3.7429046                    1_GWF-(1,160,4)
        137          4         37     -0.25086382                   1_GWF-(1,185,17)       3.5544366                    1_GWF-(1,157,4)
        138          4         38     -0.43728662                   1_GWF-(1,180,18)       3.2195495                    1_GWF-(1,153,4)
        139          4         39  6.71467159E-03                    1_GWF-(1,215,9)       3.2216463                    1_GWF-(1,153,4)
        140          4         40 -2.46343766E-02                   1_GWF-(1,152,20)       3.1901939                    1_GWF-(1,153,4)
        141          4         41     -0.60151557                   1_GWF-(1,166,20)       2.6569651                    1_GWF-(1,146,4)
        142          4         42 -1.51942173E-02                   1_GWF-(1,145,20)       2.6363333                    1_GWF-(1,146,4)
        143          4         43     -0.61094605                   1_GWF-(1,158,20)       2.0709390                    1_GWF-(1,138,4)
        144          4         44     -0.26134222                   1_GWF-(1,135,20)       1.6233850                    1_GWF-(1,137,4)
        145          4         45     -0.19440619                   1_GWF-(1,146,20)       1.4387557                    1_GWF-(1,134,4)
        146          4         46     -0.22803609                   1_GWF-(1,140,20)       1.2016334                    1_GWF-(1,134,4)
        147          4         47 -4.15378872E-03                   1_GWF-(1,132,19)       1.1964601                    1_GWF-(1,134,4)
        148          4         48      -1.8421866                   1_GWF-(1,142,20)     -0.71443414                    1_GWF-(1,167,4)
        149          4         49       1.0335034                   1_GWF-(1,155,20)      0.53048258                   1_GWF-(1,268,24)
        150          4         50 -1.77094632E-02                   1_GWF-(1,141,20)      0.38797766                      1_GWF-(1,2,4)
        151          4         51     -0.13724142                   1_GWF-(1,144,21)      0.23779910                      1_GWF-(1,2,4)
        152          4         52     -0.52675489                   1_GWF-(1,144,20)     -0.34449566                      1_GWF-(1,2,4)
        153          4         53      0.52486769                   1_GWF-(1,140,20)      0.15650425                     1_GWF-(1,2,69)
        154          4         54 -2.30477567E-02                   1_GWF-(1,137,18)      0.12063527                      1_GWF-(1,2,4)
        155          4         55 -8.31305572E-02                   1_GWF-(1,136,19)  4.30486455E-02                     1_GWF-(1,2,43)
        156          5          1      -23.409945                  1_GWF-(1,397,150)       668.26277                  1_GWF-(1,394,144)
        157          5          2      -8.4798834                  1_GWF-(1,393,140)       279.65504                  1_GWF-(1,390,136)
        158          5          3      -7.7383802                  1_GWF-(1,389,134)       170.14382                  1_GWF-(1,378,128)
        159          5          4      -10.366040                  1_GWF-(1,384,126)       122.74551                  1_GWF-(1,374,123)
        160          5          5      -16.977273                  1_GWF-(1,379,120)       114.74831                  1_GWF-(1,365,157)
        161          5          6      0.75711708                  1_GWF-(1,387,129)      -89.317028                  1_GWF-(1,388,128)
        162          5          7      -16.307955                  1_GWF-(1,361,135)       81.093928                  1_GWF-(1,344,126)
        163          5          8      -7.9929772                  1_GWF-(1,353,130)       55.495872                  1_GWF-(1,338,106)
        164          5          9      -6.8542330                  1_GWF-(1,363,188)      -60.493218                  1_GWF-(1,373,116)
        165          5         10      -5.3363040                  1_GWF-(1,360,187)      -48.892002                  1_GWF-(1,373,109)
        166          5         11      -5.3731800                  1_GWF-(1,344,197)      -53.159072                  1_GWF-(1,371,109)
        167          5         12      -3.9414826                  1_GWF-(1,341,197)       38.313828                   1_GWF-(1,212,64)
        168          5         13      -3.9320845                  1_GWF-(1,331,197)      -35.524841                  1_GWF-(1,364,110)
        169          5         14      -3.0526335                  1_GWF-(1,325,197)       30.013736                   1_GWF-(1,212,64)
        170          5         15      -3.2717171                  1_GWF-(1,317,197)       24.401321                   1_GWF-(1,212,64)
        171          5         16      0.68125798                  1_GWF-(1,342,116)      -24.720984                  1_GWF-(1,352,107)
        172          5         17      -1.8257643                  1_GWF-(1,303,197)       18.922738                    1_GWF-(1,306,4)
        173          5         18      -1.2668443                   1_GWF-(1,288,60)       18.141975                    1_GWF-(1,299,4)
        174          5         19      -1.0742659                   1_GWF-(1,285,61)       17.416627                    1_GWF-(1,292,4)
        175          5         20     -0.99613725                   1_GWF-(1,280,55)       16.481162                    1_GWF-(1,287,4)
        176          5         21     -0.88230133                   1_GWF-(1,281,51)       15.579065                    1_GWF-(1,281,4)
        177          5         22     -0.97561005                    1_GWF-(1,294,7)       14.385219                    1_GWF-(1,275,4)
        178          5         23      -1.5723264                    1_GWF-(1,290,7)       12.853576                      1_GWF-(1,2,4)
        179          5         24      -1.5657337                    1_GWF-(1,264,5)       10.707079                   1_GWF-(1,267,55)
        180          5         25     -0.83783334                    1_GWF-(1,268,6)       8.5377662                      1_GWF-(1,2,4)
        181          5         26     -0.87250598                    1_GWF-(1,258,7)       7.3613902                      1_GWF-(1,2,4)
        182          5         27     -0.58535127                    1_GWF-(1,260,7)       6.5892866                      1_GWF-(1,2,4)
        183          5         28     -0.64786631                    1_GWF-(1,241,8)       5.7199478                      1_GWF-(1,2,4)
        184          5         29     -0.46413138                    1_GWF-(1,250,7)       5.1073286                      1_GWF-(1,2,4)
        185          5         30     -0.50304967                    1_GWF-(1,241,8)       4.5103076                    1_GWF-(1,190,4)
        186          5         31     -0.92071548                    1_GWF-(1,236,8)       4.0926176                    1_GWF-(1,173,4)
        187          5         32     -0.58657528                   1_GWF-(1,168,19)       4.2412389                   1_GWF-(1,272,41)
        188          5         33     -0.29651348                   1_GWF-(1,203,12)       3.0803732                    1_GWF-(1,153,4)
        189          5         34     -0.30318566                   1_GWF-(1,175,20)       2.8405955                    1_GWF-(1,150,4)
        190          5         35     -0.24602087                   1_GWF-(1,176,19)       2.6541033                    1_GWF-(1,146,4)
        191          5         36     -0.27008407                   1_GWF-(1,163,20)       2.4293769                    1_GWF-(1,145,4)
        192          5         37     -0.20358489                   1_GWF-(1,162,20)       2.2609610                    1_GWF-(1,143,4)
        193          5         38     -0.30353705                   1_GWF-(1,148,20)       1.9713726                    1_GWF-(1,143,4)
        194          5         39     -0.20748231                   1_GWF-(1,154,20)       1.7894143                    1_GWF-(1,142,4)
        195          5         40      0.13498004                   1_GWF-(1,151,20)       1.9123020                    1_GWF-(1,142,4)
        196          5         41      -1.0086565                   1_GWF-(1,141,20)       1.3914508                   1_GWF-(1,279,21)
        197          5         42     -0.12804445                   1_GWF-(1,142,20)      0.71896383                    1_GWF-(1,138,4)
        198          5         43     -0.10969778                   1_GWF-(1,140,20)      0.61486796                    1_GWF-(1,134,4)
        199          5         44 -9.51672002E-02                   1_GWF-(1,139,20)      0.52288680                    1_GWF-(1,131,4)
        200          5         45 -8.10319051E-02                   1_GWF-(1,138,19)      0.44459860                    1_GWF-(1,131,4)
        201          5         46 -5.31324968E-02                   1_GWF-(1,135,19)      0.39202174                    1_GWF-(1,133,4)
        202          5         47 -8.53949075E-02                   1_GWF-(1,137,20)      0.30907423                    1_GWF-(1,134,4)
        203          5         48  2.77723502E-03                   1_GWF-(1,262,10)      0.31085133                    1_GWF-(1,134,4)
        204          5         49 -6.63464787E-02                   1_GWF-(1,137,20)      0.24614966                    1_GWF-(1,138,4)
        205          5         50 -5.14286236E-02                   1_GWF-(1,137,20)      0.19646891                    1_GWF-(1,138,4)
        206          5         51 -4.63028437E-02                   1_GWF-(1,137,20)      0.15132795                    1_GWF-(1,138,4)
        207          5         52 -2.90533483E-03                   1_GWF-(1,135,20)      0.14940436                      1_GWF-(1,2,4)
        208          5         53 -4.06866269E-02                   1_GWF-(1,136,20)      0.11368837                      1_GWF-(1,2,4)
        209          5         54 -2.11701574E-02                   1_GWF-(1,136,20)  9.54865038E-02                      1_GWF-(1,2,4)
        210          6          1      -22.014586                  1_GWF-(1,397,150)       612.11306                  1_GWF-(1,394,144)
        211          6          2      -8.0091329                  1_GWF-(1,393,140)       256.14791                  1_GWF-(1,390,136)
        212          6          3      -7.2382991                  1_GWF-(1,389,134)       157.03556                  1_GWF-(1,378,128)
        213          6          4      -9.9229101                  1_GWF-(1,384,126)       111.42102                  1_GWF-(1,374,123)
        214          6          5      -16.856952                  1_GWF-(1,379,119)       108.52847                  1_GWF-(1,365,157)
        215          6          6      0.68421394                  1_GWF-(1,389,130)       85.062817                  1_GWF-(1,363,154)
        216          6          7      -14.890562                  1_GWF-(1,362,136)       83.152649                    1_GWF-(1,2,160)
        217          6          8      -8.1569542                  1_GWF-(1,355,130)       53.193338                   1_GWF-(1,338,82)
        218          6          9      -6.8687494                  1_GWF-(1,361,187)      -68.061658                  1_GWF-(1,373,116)
        219          6         10      -4.9195684                  1_GWF-(1,358,186)      -51.904699                  1_GWF-(1,372,109)
        220          6         11      -5.0224701                  1_GWF-(1,341,197)      -52.294010                  1_GWF-(1,371,109)
        221          6         12      -3.4796165                  1_GWF-(1,339,197)       35.777240                   1_GWF-(1,212,64)
        222          6         13      -3.5281839                  1_GWF-(1,328,197)      -33.099179                  1_GWF-(1,364,110)
        223          6         14      -2.7347567                  1_GWF-(1,323,197)       27.021836                   1_GWF-(1,212,64)
        224          6         15      -3.1112913                  1_GWF-(1,316,197)       21.204395                   1_GWF-(1,212,64)
        225          6         16       1.3708226                  1_GWF-(1,342,116)       22.274958                   1_GWF-(1,285,46)
        226          6         17      -1.3975806                  1_GWF-(1,297,197)       16.843671                    1_GWF-(1,300,4)
        227          6         18      -1.2579576                   1_GWF-(1,283,57)       15.667693                    1_GWF-(1,294,4)
        228          6         19     -0.90545537                   1_GWF-(1,281,59)       14.898388                    1_GWF-(1,287,4)
        229          6         20      -1.0010770                    1_GWF-(1,298,6)       13.606074                    1_GWF-(1,284,4)
        230          6         21     -0.76018091                    1_GWF-(1,295,9)       12.744772                    1_GWF-(1,276,4)
        231          6         22     -0.90440490                    1_GWF-(1,289,6)       11.705559                      1_GWF-(1,2,4)
        232          6         23      -1.6570528                    1_GWF-(1,285,7)       10.452576                      1_GWF-(1,2,4)
        233          6         24       1.0372165                  1_GWF-(1,318,196)       9.8033486                   1_GWF-(1,270,49)
        234          6         25     -0.69507276                    1_GWF-(1,266,9)       7.2803205                      1_GWF-(1,2,4)
        235          6         26     -0.72445677                    1_GWF-(1,259,5)       6.0530065                      1_GWF-(1,2,4)
        236          6         27     -0.50368841                   1_GWF-(1,258,10)       5.6600749                      1_GWF-(1,2,4)
        237          6         28     -0.50820188                    1_GWF-(1,243,4)       4.5958783                      1_GWF-(1,2,4)
        238          6         29     -0.40005485                   1_GWF-(1,247,10)       4.4484745                      1_GWF-(1,2,4)
        239          6         30     -0.42851148                    1_GWF-(1,240,5)       3.9719930                    1_GWF-(1,183,4)
        240          6         31      -1.0632061                    1_GWF-(1,232,8)       3.4895934                    1_GWF-(1,165,4)
        241          6         32      -1.0850497                   1_GWF-(1,165,19)       3.9256886                   1_GWF-(1,272,42)
        242          6         33     -0.21968779                   1_GWF-(1,152,20)       2.0920142                    1_GWF-(1,130,4)
        243          6         34     -0.19641962                   1_GWF-(1,145,21)       1.8939342                    1_GWF-(1,126,4)
        244          6         35     -0.18576645                   1_GWF-(1,142,21)       1.7156790                    1_GWF-(1,125,4)
        245          6         36     -0.18441005                   1_GWF-(1,138,20)       1.5324985                    1_GWF-(1,121,4)
        246          6         37     -0.14971861                   1_GWF-(1,135,20)       1.3810035                    1_GWF-(1,119,4)
        247          6         38     -0.15596456                   1_GWF-(1,129,19)       1.2126774                    1_GWF-(1,118,4)
        248          6         39     -0.14961210                   1_GWF-(1,131,19)       1.0579417                    1_GWF-(1,117,4)
        249          6         40  4.54991141E-02                   1_GWF-(1,131,19)       1.1050901                    1_GWF-(1,117,4)
        250          6         41     -0.32041123                   1_GWF-(1,125,18)      0.78047704                    1_GWF-(1,134,4)
        251          6         42     -0.12608076                   1_GWF-(1,135,20)      0.66037955                    1_GWF-(1,134,4)
        252          6         43     -0.10211769                   1_GWF-(1,135,20)      0.56257031                    1_GWF-(1,135,4)
        253          6         44 -9.35140643E-02                   1_GWF-(1,135,20)      0.47283113                    1_GWF-(1,138,4)
        254          6         45     -0.12231417                   1_GWF-(1,135,20)      0.35520375                    1_GWF-(1,141,4)
        255          6         46     -0.21976847                   1_GWF-(1,138,19)      0.30652117                   1_GWF-(1,268,27)
        256          6         47 -5.65571245E-03                   1_GWF-(1,158,27)      0.17066534                      1_GWF-(1,2,4)
        257          6         48 -2.83805928E-02                   1_GWF-(1,156,26)      0.12284614                      1_GWF-(1,2,4)
        258          6         49 -2.13832907E-02                   1_GWF-(1,148,26)  9.11293685E-02                    1_GWF-(1,127,4)
        259          7          1      -20.714760                  1_GWF-(1,397,150)       559.37146                  1_GWF-(1,394,144)
        260          7          2      -7.5715692                  1_GWF-(1,393,140)       233.74586                  1_GWF-(1,390,136)
        261          7          3      -6.7504609                  1_GWF-(1,389,135)       144.80966                  1_GWF-(1,378,128)
        262          7          4      -9.4840489                  1_GWF-(1,384,126)       101.59522                  1_GWF-(1,374,101)
        263          7          5      -16.646519                  1_GWF-(1,379,119)       103.03868                  1_GWF-(1,365,157)
        264          7          6      0.86938646                  1_GWF-(1,389,129)       82.518381                  1_GWF-(1,363,154)
        265          7          7      -13.768723                  1_GWF-(1,364,136)       82.707063                    1_GWF-(1,2,160)
        266          7          8      -8.4359870                  1_GWF-(1,369,160)      -65.796902                  1_GWF-(1,379,108)
        267          7          9      -6.7116286                  1_GWF-(1,342,114)      -71.917487                  1_GWF-(1,373,116)
        268          7         10      -4.6479956                  1_GWF-(1,357,186)      -54.875333                  1_GWF-(1,373,109)
        269          7         11      -4.6551667                  1_GWF-(1,341,197)      -53.630136                  1_GWF-(1,370,109)
        270          7         12      -3.1443656                  1_GWF-(1,338,197)      -35.754285                  1_GWF-(1,368,110)
        271          7         13      -3.2359763                  1_GWF-(1,328,197)      -32.682792                  1_GWF-(1,363,110)
        272          7         14      -2.5299630                  1_GWF-(1,323,197)       25.189872                   1_GWF-(1,212,64)
        273          7         15      -3.0693836                  1_GWF-(1,315,197)      -19.023109                  1_GWF-(1,346,110)
        274          7         16       2.3662571                  1_GWF-(1,342,116)       21.494760                   1_GWF-(1,285,46)
        275          7         17      -1.0976699                  1_GWF-(1,288,196)       15.357801                    1_GWF-(1,291,4)
        276          7         18      -1.2778442                    1_GWF-(1,299,6)       13.439015                    1_GWF-(1,288,4)
        277          7         19     -0.77266420                   1_GWF-(1,280,52)       12.674080                    1_GWF-(1,280,4)
        278          7         20     -0.95975198                    1_GWF-(1,289,5)       11.195687                      1_GWF-(1,2,4)
        279          7         21     -0.67060930                    1_GWF-(1,289,8)       10.853218                      1_GWF-(1,2,4)
        280          7         22     -0.79625766                    1_GWF-(1,283,6)       10.020273                      1_GWF-(1,2,4)
        281          7         23      -1.9966114                    1_GWF-(1,280,7)       8.2256711                      1_GWF-(1,2,4)
        282          7         24      0.90545229                  1_GWF-(1,302,196)       9.0039761                   1_GWF-(1,270,50)
        283          7         25     -0.56089774                   1_GWF-(1,259,11)       5.9537615                      1_GWF-(1,2,4)
        284          7         26     -0.54752742                    1_GWF-(1,256,4)       5.2169833                      1_GWF-(1,2,4)
        285          7         27     -0.42582033                    1_GWF-(1,252,9)       4.6706260                      1_GWF-(1,2,4)
        286          7         28     -0.36377069                    1_GWF-(1,245,8)       4.1982708                      1_GWF-(1,2,4)
        287          7         29     -0.33442271                    1_GWF-(1,241,8)       3.7636015                      1_GWF-(1,2,4)
        288          7         30     -0.36155103                    1_GWF-(1,233,8)       3.4898885                    1_GWF-(1,173,4)
        289          7         31     -0.97578210                    1_GWF-(1,222,9)       2.9699168                    1_GWF-(1,157,4)
        290          7         32      -1.2888293                   1_GWF-(1,159,21)       3.3255552                   1_GWF-(1,276,35)
        291          7         33     -0.17354165                   1_GWF-(1,137,22)       1.4789829                    1_GWF-(1,117,4)
        292          7         34     -0.16341102                   1_GWF-(1,127,19)       1.2829405                    1_GWF-(1,113,4)
        293          7         35     -0.13949265                   1_GWF-(1,128,19)       1.1256985                    1_GWF-(1,109,4)
        294          7         36     -0.14357410                   1_GWF-(1,122,19)      0.95959280                    1_GWF-(1,104,4)
        295          7         37     -0.10801094                   1_GWF-(1,122,18)      0.84104052                     1_GWF-(1,99,4)
        296          7         38     -0.11913827                   1_GWF-(1,114,16)      0.70013869                     1_GWF-(1,94,4)
        297          7         39 -9.80984101E-02                   1_GWF-(1,121,17)      0.59311311                     1_GWF-(1,89,4)
        298          7         40      0.10748575                   1_GWF-(1,119,17)      0.70855547                     1_GWF-(1,93,4)
        299          7         41     -0.38820143                   1_GWF-(1,108,12)      0.49851975                   1_GWF-(1,277,14)
        300          7         42 -6.30355306E-02                   1_GWF-(1,139,22)      0.35751509                      1_GWF-(1,2,4)
        301          7         43 -4.92151830E-02                   1_GWF-(1,136,17)      0.30760496                      1_GWF-(1,2,4)
        302          7         44 -4.61404459E-02                   1_GWF-(1,132,17)      0.23805131                      1_GWF-(1,2,4)
        303          7         45  2.62347020E-02                   1_GWF-(1,127,16)      0.27536527                      1_GWF-(1,2,4)
        304          7         46 -9.01542705E-02                   1_GWF-(1,114,13)      0.14605243                    1_GWF-(1,141,4)
        305          7         47 -1.30001217E-02                   1_GWF-(1,141,25)      0.13146875                    1_GWF-(1,137,4)
        306          7         48 -2.43465284E-02                   1_GWF-(1,135,21)      0.11956798                      1_GWF-(1,2,4)
        307          7         49 -2.10782188E-02                   1_GWF-(1,134,22)  8.34861204E-02                      1_GWF-(1,2,4)
        308          8          1      -8.8541448                  1_GWF-(1,377,128)      -288.50209                  1_GWF-(1,335,115)
        309          8          2      -3.3686467                  1_GWF-(1,394,139)       99.578621                  1_GWF-(1,368,122)
        310          8          3      -2.6204420                  1_GWF-(1,368,118)       64.281495                  1_GWF-(1,363,115)
        311          8          4      -3.9100717                  1_GWF-(1,367,115)       52.391016                  1_GWF-(1,367,186)
        312          8          5      -5.2374010                  1_GWF-(1,379,113)       51.037214                    1_GWF-(1,2,196)
        313          8          6     -0.78168971                  1_GWF-(1,364,149)       48.177084                    1_GWF-(1,2,196)
        314          8          7      -7.7642753                  1_GWF-(1,368,188)       47.817744                    1_GWF-(1,2,160)
        315          8          8      -8.0367292                  1_GWF-(1,367,187)       33.479833                    1_GWF-(1,2,138)
        316          8          9      -6.1543913                  1_GWF-(1,345,197)      -35.655803                  1_GWF-(1,373,108)
        317          8         10      -4.0417474                  1_GWF-(1,341,197)      -34.684714                  1_GWF-(1,372,108)
        318          8         11      -2.6317180                  1_GWF-(1,335,160)      -32.031873                  1_GWF-(1,372,109)
        319          8         12      -1.4796136                  1_GWF-(1,327,159)      -26.113866                  1_GWF-(1,370,102)
        320          8         13      -1.5702626                  1_GWF-(1,321,157)      -19.555103                  1_GWF-(1,367,102)
        321          8         14      -1.2895198                  1_GWF-(1,315,157)      -13.607298                  1_GWF-(1,361,102)
        322          8         15      0.16989393                  1_GWF-(1,386,161)      -14.168213                  1_GWF-(1,361,106)
        323          8         16       1.4286329                  1_GWF-(1,379,102)       12.055040                   1_GWF-(1,287,37)
        324          8         17     -0.70019230                   1_GWF-(1,290,52)       10.354902                    1_GWF-(1,307,4)
        325          8         18     -0.76320384                   1_GWF-(1,286,49)       9.7981144                      1_GWF-(1,2,4)
        326          8         19     -0.62665831                   1_GWF-(1,284,49)       9.7462880                      1_GWF-(1,2,4)
        327          8         20     -0.85962128                    1_GWF-(1,300,5)       9.1385953                      1_GWF-(1,2,4)
        328          8         21     -0.84802901                    1_GWF-(1,297,7)       8.5574411                      1_GWF-(1,2,4)
        329          8         22     -0.98210507                    1_GWF-(1,290,5)       7.4520327                      1_GWF-(1,2,4)
        330          8         23     -0.87415244                    1_GWF-(1,286,6)       6.3751676                      1_GWF-(1,2,4)
        331          8         24     -0.34299552                    1_GWF-(1,248,4)       5.2827783                      1_GWF-(1,2,4)
        332          8         25     -0.52467083                    1_GWF-(1,268,6)       4.4968836                      1_GWF-(1,2,4)
        333          8         26     -0.59209387                    1_GWF-(1,256,6)       3.5961667                      1_GWF-(1,2,4)
        334          8         27     -0.38073306                    1_GWF-(1,253,6)       3.2303575                    1_GWF-(1,191,4)
        335          8         28     -0.38649737                    1_GWF-(1,225,7)       2.9641138                    1_GWF-(1,179,4)
        336          8         29     -0.25437874                    1_GWF-(1,229,7)       2.8155769                    1_GWF-(1,174,4)
        337          8         30     -0.29952078                    1_GWF-(1,213,9)       2.6178083                    1_GWF-(1,169,4)
        338          8         31      0.37482695                   1_GWF-(1,202,12)       2.8979201                    1_GWF-(1,175,4)
        339          8         32      -1.6306339                   1_GWF-(1,170,20)       1.7316959                   1_GWF-(1,270,31)
        340          8         33     -0.16700725                   1_GWF-(1,155,18)       1.1693128                    1_GWF-(1,138,4)
        341          8         34     -0.13044546                   1_GWF-(1,151,19)       1.0394558                    1_GWF-(1,134,4)
        342          8         35     -0.13020440                   1_GWF-(1,146,20)      0.90391640                    1_GWF-(1,131,4)
        343          8         36 -7.26814515E-02                   1_GWF-(1,141,20)      0.82372783                    1_GWF-(1,130,4)
        344          8         37     -0.10026977                   1_GWF-(1,140,20)      0.71182109                    1_GWF-(1,127,4)
        345          8         38      -1.2479032                   1_GWF-(1,137,21)     -0.98969493                    1_GWF-(1,290,4)
        346          8         39       1.0207464                   1_GWF-(1,140,21)      0.38276408                    1_GWF-(1,115,4)
        347          8         40 -3.58146419E-02                   1_GWF-(1,130,17)      0.34272727                    1_GWF-(1,115,4)
        348          8         41     -0.12764393                   1_GWF-(1,129,18)      0.22865293                    1_GWF-(1,142,4)
        349          8         42  9.52405615E-04                   1_GWF-(1,173,36)      0.22821341                    1_GWF-(1,142,4)
        350          8         43 -4.82588842E-02                   1_GWF-(1,140,21)      0.17479703                    1_GWF-(1,140,4)
        351          8         44 -2.52650351E-02                   1_GWF-(1,139,17)      0.14438009                    1_GWF-(1,138,4)
        352          8         45 -2.17239620E-02                   1_GWF-(1,139,16)      0.11819164                    1_GWF-(1,135,4)
        353          8         46 -3.11467918E-02                   1_GWF-(1,133,14) -9.76822344E-02                   1_GWF-(1,266,22)
        354          9          1      -6.2270851                  1_GWF-(1,377,128)      -184.01677                   1_GWF-(1,255,95)
        355          9          2      -2.2072054                  1_GWF-(1,387,169)       60.288051                    1_GWF-(1,2,162)
        356          9          3      -1.9266477                  1_GWF-(1,367,118)       39.463588                    1_GWF-(1,2,177)
        357          9          4      -3.1769513                  1_GWF-(1,379,178)       35.474933                    1_GWF-(1,2,186)
        358          9          5      -3.6931440                  1_GWF-(1,369,186)       36.304003                    1_GWF-(1,2,196)
        359          9          6     -0.50282163                  1_GWF-(1,364,149)       34.720291                    1_GWF-(1,2,196)
        360          9          7      -7.4060145                  1_GWF-(1,365,188)       38.796570                    1_GWF-(1,2,132)
        361          9          8      -7.5487179                  1_GWF-(1,347,197)       26.288709                    1_GWF-(1,2,138)
        362          9          9      -5.9836474                  1_GWF-(1,340,198)       25.869428                    1_GWF-(1,2,159)
        363          9         10      -4.0283392                  1_GWF-(1,335,197)       19.847217                   1_GWF-(1,212,64)
        364          9         11      -2.5710553                  1_GWF-(1,329,160)       18.548470                    1_GWF-(1,2,158)
        365          9         12      -1.5504848                  1_GWF-(1,321,160)       14.363380                   1_GWF-(1,231,61)
        366          9         13      -1.7164040                  1_GWF-(1,315,157)       12.082008                   1_GWF-(1,232,55)
        367          9         14      -1.4397641                  1_GWF-(1,113,153)       10.938978                     1_GWF-(1,2,42)
        368          9         15       1.0071228                  1_GWF-(1,376,160)       12.964411                   1_GWF-(1,287,37)
        369          9         16     -0.86893370                   1_GWF-(1,286,51)       10.452907                      1_GWF-(1,2,4)
        370          9         17     -0.74718764                   1_GWF-(1,284,49)       10.512877                      1_GWF-(1,2,4)
        371          9         18     -0.60518876                   1_GWF-(1,289,29)       10.396369                      1_GWF-(1,2,4)
        372          9         19     -0.78855147                   1_GWF-(1,294,10)       10.024551                      1_GWF-(1,2,4)
        373          9         20     -0.93468662                    1_GWF-(1,292,6)       9.4610491                      1_GWF-(1,2,4)
        374          9         21      -1.3031561                    1_GWF-(1,288,5)       8.4117406                      1_GWF-(1,2,4)
        375          9         22      -1.5049556                    1_GWF-(1,284,5)       7.0563932                      1_GWF-(1,2,4)
        376          9         23       2.8468881                    1_GWF-(1,278,5)       10.170696                      1_GWF-(1,2,4)
        377          9         24      -4.9992697                    1_GWF-(1,258,4)       4.4382362                    1_GWF-(1,162,4)
        378          9         25     -0.61439025                   1_GWF-(1,223,30)       4.1288418                    1_GWF-(1,159,4)
        379          9         26     -0.62598678                   1_GWF-(1,210,34)       3.7796475                    1_GWF-(1,158,4)
        380          9         27     -0.42972748                   1_GWF-(1,196,33)       3.5363761                    1_GWF-(1,158,4)
        381          9         28     -0.38196036                   1_GWF-(1,174,31)       3.3194937                    1_GWF-(1,158,4)
        382          9         29     -0.32754004                   1_GWF-(1,171,29)       3.1326001                    1_GWF-(1,155,4)
        383          9         30     -0.43451151                   1_GWF-(1,166,29)       2.8765310                    1_GWF-(1,153,4)
        384          9         31 -3.71819488E-02                   1_GWF-(1,152,19)       2.8469857                    1_GWF-(1,153,4)
        385          9         32     -0.59716241                   1_GWF-(1,158,19)       2.4227819                    1_GWF-(1,149,4)
        386          9         33      -1.2571146                   1_GWF-(1,157,19)      -1.7817654                   1_GWF-(1,271,32)
        387          9         34      0.72767473                   1_GWF-(1,158,19)       2.0408440                    1_GWF-(1,143,4)
        388          9         35     -0.17975763                   1_GWF-(1,153,19)       1.9089043                    1_GWF-(1,142,4)
        389          9         36     -0.28294336                   1_GWF-(1,149,19)       1.6851303                    1_GWF-(1,141,4)
        390          9         37     -0.23615420                   1_GWF-(1,146,19)       1.4865096                    1_GWF-(1,139,4)
        391          9         38     -0.16904922                   1_GWF-(1,146,19)       1.3467831                    1_GWF-(1,138,4)
        392          9         39 -6.02929327E-02                   1_GWF-(1,136,22)       1.2659644                    1_GWF-(1,138,4)
        393          9         40      -7.6512293                   1_GWF-(1,143,20)      -5.6957969                    1_GWF-(1,155,4)
        394          9         41       7.4174224                   1_GWF-(1,143,20)       1.0569174                    1_GWF-(1,136,4)
        395          9         42     -0.10674094                   1_GWF-(1,141,20)      0.95769316                    1_GWF-(1,135,4)
        396          9         43  1.30783913E-02                   1_GWF-(1,141,20)      0.96962102                    1_GWF-(1,135,4)
        397          9         44     -0.64640307                   1_GWF-(1,133,20)     -0.57881116                   1_GWF-(1,274,23)
        398          9         45     -0.15714746                   1_GWF-(1,124,13)      0.18196286                      1_GWF-(1,2,4)
        399          9         46  4.31610045E-02                   1_GWF-(1,123,12)      0.20545278                      1_GWF-(1,2,4)
        400          9         47 -4.45028813E-02                   1_GWF-(1,160,21)      0.14606286                    1_GWF-(1,141,4)
        401          9         48 -8.62318773E-02                   1_GWF-(1,138,21)      0.10039147                      1_GWF-(1,2,4)
        402          9         49  1.90078662E-02                   1_GWF-(1,276,38)  9.51813856E-02                     1_GWF-(1,2,31)
        403         10          1       4.5034111                  1_GWF-(1,328,113)      -172.93413                   1_GWF-(1,286,52)
        404         10          2       1.8380693                   1_GWF-(1,255,95)       38.846989                    1_GWF-(1,2,162)
        405         10          3      -1.3592816                  1_GWF-(1,379,176)       25.540073                    1_GWF-(1,2,178)
        406         10          4      -2.1736922                  1_GWF-(1,378,178)       23.023802                   1_GWF-(1,255,98)
        407         10          5      -2.4660367                  1_GWF-(1,368,187)       23.178111                    1_GWF-(1,2,196)
        408         10          6     -0.12565721                  1_GWF-(1,297,143)       22.744348                    1_GWF-(1,2,196)
        409         10          7      -6.0321685                  1_GWF-(1,347,198)       25.952250                    1_GWF-(1,2,132)
        410         10          8      -5.6977444                  1_GWF-(1,344,198)       16.003609                    1_GWF-(1,2,138)
        411         10          9      -4.8193987                  1_GWF-(1,333,196)       18.557816                   1_GWF-(1,284,53)
        412         10         10      -3.5703546                  1_GWF-(1,330,197)       12.278007                    1_GWF-(1,2,158)
        413         10         11      -2.3184283                  1_GWF-(1,321,160)       13.170586                    1_GWF-(1,2,158)
        414         10         12      -1.4736270                  1_GWF-(1,313,160)       9.8653606                     1_GWF-(1,2,49)
        415         10         13      -1.6078426                  1_GWF-(1,188,159)       9.0897160                     1_GWF-(1,2,42)
        416         10         14      -1.3065122                   1_GWF-(1,291,54)       8.6373424                      1_GWF-(1,2,4)
        417         10         15      0.85846988                  1_GWF-(1,348,197)       9.8800872                   1_GWF-(1,286,37)
        418         10         16     -0.83538601                   1_GWF-(1,282,50)       8.9165095                      1_GWF-(1,2,4)
        419         10         17     -0.66699868                   1_GWF-(1,283,24)       8.7705772                      1_GWF-(1,2,4)
        420         10         18     -0.58260275                   1_GWF-(1,282,19)       8.5345410                      1_GWF-(1,2,4)
        421         10         19     -0.76549740                    1_GWF-(1,281,7)       8.0849172                      1_GWF-(1,2,4)
        422         10         20     -0.95849939                    1_GWF-(1,278,6)       7.4519145                      1_GWF-(1,2,4)
        423         10         21      -1.4052106                    1_GWF-(1,275,5)       6.3614883                      1_GWF-(1,2,4)
        424         10         22      -1.7217764                    1_GWF-(1,271,5)       4.9292825                      1_GWF-(1,2,4)
        425         10         23       1.0628075                    1_GWF-(1,265,5)       5.9407735                      1_GWF-(1,2,4)
        426         10         24      -3.2306792                    1_GWF-(1,214,5)       3.8596859                    1_GWF-(1,159,4)
        427         10         25     -0.75949234                   1_GWF-(1,193,26)       3.5371196                    1_GWF-(1,158,4)
        428         10         26     -0.74541477                   1_GWF-(1,172,25)       3.1891556                    1_GWF-(1,155,4)
        429         10         27     -0.44976135                   1_GWF-(1,170,25)       2.9844889                    1_GWF-(1,154,4)
        430         10         28     -0.44584648                   1_GWF-(1,158,29)       2.7443999                    1_GWF-(1,153,4)
        431         10         29     -0.29366347                   1_GWF-(1,159,23)       2.5942170                    1_GWF-(1,150,4)
        432         10         30     -0.39494425                   1_GWF-(1,156,22)       2.3735296                    1_GWF-(1,149,4)
        433         10         31 -2.66734956E-02                   1_GWF-(1,148,17)       2.3522299                    1_GWF-(1,149,4)
        434         10         32     -0.45741436                   1_GWF-(1,151,20)       2.0655252                    1_GWF-(1,146,4)
        435         10         33     -0.30968739                   1_GWF-(1,151,20)       1.8709178                    1_GWF-(1,143,4)
        436         10         34     -0.37605999                   1_GWF-(1,149,19)       1.6270187                    1_GWF-(1,142,4)
        437         10         35     -0.23597310                   1_GWF-(1,147,19)       1.4676546                    1_GWF-(1,139,4)
        438         10         36     -0.36123380                   1_GWF-(1,146,19)       1.2193142                    1_GWF-(1,138,4)
        439         10         37 -7.42878825E-02                   1_GWF-(1,140,20)       1.1582019                    1_GWF-(1,137,4)
        440         10         38 -4.78061726E-03                   1_GWF-(1,134,22)       1.1517400                    1_GWF-(1,138,4)
        441         10         39     -0.36181423                   1_GWF-(1,143,20)      0.88347967                    1_GWF-(1,134,4)
        442         10         40     -0.37479859                   1_GWF-(1,133,22)      -1.0498826                   1_GWF-(1,268,32)
        443         10         41     -0.18641759                   1_GWF-(1,135,18)      0.32739855                    1_GWF-(1,114,4)
        444         10         42  4.99029066E-02                   1_GWF-(1,137,21)      0.35793598                    1_GWF-(1,118,4)
        445         10         43 -9.23194770E-02                   1_GWF-(1,133,15)      0.29357216                    1_GWF-(1,117,4)
        446         10         44     -0.11939283                   1_GWF-(1,121,14)     -0.29863916                   1_GWF-(1,272,27)
        447         10         45 -7.48868448E-02                   1_GWF-(1,135,25)      0.16227094                    1_GWF-(1,142,4)
        448         10         46  3.87411572E-02                   1_GWF-(1,136,24)      0.19032219                    1_GWF-(1,142,4)
        449         10         47     -0.10644294                   1_GWF-(1,138,21)     -0.12994333                    1_GWF-(1,319,4)
        450         10         48     -0.34523041                   1_GWF-(1,123,15)     -0.37673548                   1_GWF-(1,266,21)
        451         10         49 -1.76510453E-03                   1_GWF-(1,152,36)     -0.22790324                    1_GWF-(1,196,4)
        452         10         50      0.28081636                   1_GWF-(1,126,12)  8.34221990E-02                      1_GWF-(1,2,4)
        453         10         51 -2.05163517E-02                   1_GWF-(1,137,20)  7.39715229E-02                      1_GWF-(1,2,4)
        454         11          1       4.2892755                   1_GWF-(1,279,54)      -149.28010                   1_GWF-(1,286,52)
        455         11          2       1.7187320                   1_GWF-(1,255,95)      -31.798244                   1_GWF-(1,286,52)
        456         11          3     -0.94428683                  1_GWF-(1,379,177)       15.591795                    1_GWF-(1,2,178)
        457         11          4      -1.4527835                  1_GWF-(1,378,178)       15.271327                   1_GWF-(1,255,98)
        458         11          5      -1.7270977                  1_GWF-(1,368,188)       15.464066                   1_GWF-(1,253,99)
        459         11          6      0.27084505                  1_GWF-(1,368,188)       14.209638                   1_GWF-(1,255,96)
        460         11          7      -4.8885108                  1_GWF-(1,345,198)       15.627504                   1_GWF-(1,286,54)
        461         11          8      -4.3835699                  1_GWF-(1,339,198)       11.995668                   1_GWF-(1,286,54)
        462         11          9      -3.9710960                  1_GWF-(1,330,196)       13.241049                   1_GWF-(1,284,53)
        463         11         10      -3.1713156                  1_GWF-(1,325,197)       10.049170                   1_GWF-(1,287,47)
        464         11         11      -2.1144859                  1_GWF-(1,316,190)       9.2788169                   1_GWF-(1,287,47)
        465         11         12      -1.4252175                  1_GWF-(1,191,160)       7.5512909                     1_GWF-(1,2,46)
        466         11         13      -1.5416618                   1_GWF-(1,291,54)       6.9799817                     1_GWF-(1,2,39)
        467         11         14      -1.3456777                   1_GWF-(1,288,50)       6.7838226                      1_GWF-(1,2,4)
        468         11         15      0.40488287                  1_GWF-(1,346,198)       6.9606284                      1_GWF-(1,2,4)
        469         11         16     -0.91982336                   1_GWF-(1,282,50)       6.9219860                      1_GWF-(1,2,4)
        470         11         17     -0.62244017                   1_GWF-(1,282,50)       6.8635240                      1_GWF-(1,2,4)
        471         11         18     -0.60652080                   1_GWF-(1,272,25)       6.7231548                      1_GWF-(1,2,4)
        472         11         19     -0.75109957                   1_GWF-(1,271,15)       6.4528198                      1_GWF-(1,2,4)
        473         11         20     -0.99896225                    1_GWF-(1,269,7)       5.9319826                      1_GWF-(1,2,4)
        474         11         21      -1.4474858                    1_GWF-(1,265,6)       5.0817296                      1_GWF-(1,2,4)
        475         11         22      -1.8656636                    1_GWF-(1,260,5)       3.7634383                    1_GWF-(1,138,4)
        476         11         23      0.58072196                    1_GWF-(1,251,4)       4.2585231                      1_GWF-(1,2,4)
        477         11         24      -2.6678550                    1_GWF-(1,203,5)       3.2050216                    1_GWF-(1,161,4)
        478         11         25     -0.86992071                   1_GWF-(1,179,12)       2.9345654                    1_GWF-(1,158,4)
        479         11         26     -0.80577966                   1_GWF-(1,165,14)       2.6374142                    1_GWF-(1,154,4)
        480         11         27     -0.46704222                   1_GWF-(1,163,17)       2.4671655                    1_GWF-(1,154,4)
        481         11         28     -0.42332953                   1_GWF-(1,156,25)       2.2650570                    1_GWF-(1,151,4)
        482         11         29     -0.26579292                   1_GWF-(1,155,24)       2.1544418                    1_GWF-(1,150,4)
        483         11         30     -0.34050950                   1_GWF-(1,153,24)       1.9965578                    1_GWF-(1,149,4)
        484         11         31 -1.12945892E-02                  1_GWF-(1,347,197)       1.9914949                    1_GWF-(1,149,4)
        485         11         32     -0.46310185                   1_GWF-(1,150,21)       1.7413431                    1_GWF-(1,146,4)
        486         11         33     -0.25951604                   1_GWF-(1,149,20)       1.6015964                    1_GWF-(1,145,4)
        487         11         34     -0.52232030                   1_GWF-(1,148,20)       1.3159125                    1_GWF-(1,141,4)
        488         11         35     -0.17546081                   1_GWF-(1,139,17)      -1.4391415                   1_GWF-(1,271,28)
        489         11         36 -5.88512124E-02                   1_GWF-(1,144,20)       1.1364312                    1_GWF-(1,141,4)
        490         11         37     -0.42529547                   1_GWF-(1,144,20)      0.88620253                    1_GWF-(1,137,4)
        491         11         38     -0.13401018                   1_GWF-(1,142,20)      0.80449633                    1_GWF-(1,135,4)
        492         11         39     -0.24233858                   1_GWF-(1,142,20)      0.65589889                    1_GWF-(1,133,4)
        493         11         40 -5.62571023E-02                   1_GWF-(1,131,19)     -0.67701404                   1_GWF-(1,271,27)
        494         11         41     -0.12404569                   1_GWF-(1,138,20)      0.52139409                    1_GWF-(1,131,4)
        495         11         42     -0.41096929                   1_GWF-(1,137,19)      0.25449845                    1_GWF-(1,121,4)
        496         11         43      0.23375312                   1_GWF-(1,347,35)     -0.42294425                   1_GWF-(1,270,19)
        497         11         44  9.25253544E-03                   1_GWF-(1,120,17)      0.17757872                      1_GWF-(1,2,4)
        498         11         45 -3.70411188E-02                   1_GWF-(1,120,17)      0.17083275                      1_GWF-(1,2,4)
        499         11         46     -0.10350082                     1_GWF-(1,46,4)     -0.15883816                   1_GWF-(1,262,20)
        500         11         47 -5.79839173E-02                   1_GWF-(1,128,22) -8.20771065E-02                   1_GWF-(1,263,22)
        501         12          1       4.2556185                   1_GWF-(1,279,54)      -121.17890                   1_GWF-(1,286,52)
        502         12          2       1.5653991                   1_GWF-(1,255,95)      -28.862809                   1_GWF-(1,283,51)
        503         12          3      0.62731303                  1_GWF-(1,195,142)       9.0923257                    1_GWF-(1,2,112)
        504         12          4     -0.90343087                  1_GWF-(1,378,179)       9.7257026                   1_GWF-(1,285,57)
        505         12          5      -1.1495084                  1_GWF-(1,367,188)       11.061242                   1_GWF-(1,285,57)
        506         12          6      0.30011089                  1_GWF-(1,366,188)       9.1194869                   1_GWF-(1,255,96)
        507         12          7      -3.5181236                  1_GWF-(1,343,199)       9.9255044                   1_GWF-(1,286,54)
        508         12          8      -3.1590421                  1_GWF-(1,335,198)       8.9722722                   1_GWF-(1,286,54)
        509         12          9      -3.0949792                  1_GWF-(1,328,197)       8.8909981                   1_GWF-(1,283,53)
        510         12         10      -2.6896533                  1_GWF-(1,321,197)       7.7722876                   1_GWF-(1,287,47)
        511         12         11      -1.9742317                  1_GWF-(1,313,195)       6.2690873                   1_GWF-(1,287,47)
        512         12         12      -1.4582840                   1_GWF-(1,291,54)       5.3691288                     1_GWF-(1,2,44)
        513         12         13      -1.6174353                   1_GWF-(1,290,52)       4.9425702                     1_GWF-(1,2,38)
        514         12         14      -1.4134312                   1_GWF-(1,286,49)       4.7882466                      1_GWF-(1,2,4)
        515         12         15      0.20813844                  1_GWF-(1,342,198)       4.8884832                      1_GWF-(1,2,4)
        516         12         16     -0.95799345                   1_GWF-(1,284,49)       4.8835760                      1_GWF-(1,2,4)
        517         12         17     -0.55886252                   1_GWF-(1,282,50)       4.8095639                      1_GWF-(1,2,4)
        518         12         18     -0.55862277                   1_GWF-(1,265,21)       4.6774037                      1_GWF-(1,2,4)
        519         12         19     -0.63492352                   1_GWF-(1,263,13)       4.4674167                      1_GWF-(1,2,4)
        520         12         20     -0.87613170                   1_GWF-(1,182,22)       3.9974060                      1_GWF-(1,2,4)
[...]
        639         15          8     -0.80205301                   1_GWF-(1,111,10)       2.0551784                    1_GWF-(1,2,132)
        640         15          9      -1.0959072                   1_GWF-(1,115,12)       3.0512060                   1_GWF-(1,284,53)
        641         15         10      -1.3561863                   1_GWF-(1,117,14)       2.3199946                    1_GWF-(1,2,130)
        642         15         11      -1.5662296                   1_GWF-(1,123,19)       3.1605106                    1_GWF-(1,2,130)
        643         15         12      -1.3968928                   1_GWF-(1,126,21)       2.1222841                    1_GWF-(1,2,130)
        644         15         13      -1.5923788                   1_GWF-(1,132,24)       2.0387176                    1_GWF-(1,2,130)
        645         15         14      -1.6150440                   1_GWF-(1,137,25)      -1.5900749                   1_GWF-(1,212,64)
        646         15         15  9.78389407E-02                   1_GWF-(1,167,84)       1.5264498                    1_GWF-(1,2,127)
        647         15         16      -1.1963123                   1_GWF-(1,156,25)       1.1674184                    1_GWF-(1,2,127)
        648         15         17     -0.44701063                   1_GWF-(1,164,21)      0.98247952                      1_GWF-(1,2,4)
        649         15         18     -0.32690137                   1_GWF-(1,170,14)      0.93530829                      1_GWF-(1,2,4)
        650         15         19     -0.24613550                   1_GWF-(1,169,15)      0.88621867                      1_GWF-(1,2,4)
        651         15         20     -0.27406898                   1_GWF-(1,169,16)      0.77507245                      1_GWF-(1,2,4)
        652         15         21     -0.28635514                   1_GWF-(1,168,18)      0.67873933                      1_GWF-(1,2,4)
        653         15         22     -0.44346757                   1_GWF-(1,167,19)      0.58921418                    1_GWF-(1,154,4)
        654         15         23      0.22889109                   1_GWF-(1,166,20)      0.62341743                    1_GWF-(1,158,4)
        655         15         24       1.1091640                  1_GWF-(1,288,198)      0.50118705                   1_GWF-(1,270,47)
        656         15         25     -0.38544848                   1_GWF-(1,156,15)     -0.52326585                   1_GWF-(1,212,64)
        657         15         26     -0.40711344                   1_GWF-(1,159,13)     -0.45773613                   1_GWF-(1,212,64)
        658         15         27     -0.32305028                   1_GWF-(1,158,15)     -0.40291008                   1_GWF-(1,212,64)
        659         15         28     -0.23151871                   1_GWF-(1,158,23)     -0.31225298                   1_GWF-(1,212,64)
        660         15         29     -0.16576909                   1_GWF-(1,156,23)     -0.26337975                   1_GWF-(1,212,64)
        661         15         30     -0.16300497                   1_GWF-(1,155,26)      0.21470060                    1_GWF-(1,142,4)
        662         15         31      0.13564421                   1_GWF-(1,153,26)     -0.25406423                   1_GWF-(1,212,64)
        663         15         32     -0.46623532                   1_GWF-(1,141,18)     -0.16743877                   1_GWF-(1,270,35)
        664         15         33 -6.73164896E-02                   1_GWF-(1,131,23)      0.12471570                    1_GWF-(1,142,4)
        665         15         34 -4.77034331E-02                   1_GWF-(1,129,31)     -0.12098377                   1_GWF-(1,212,64)
        666         15         35 -4.01806476E-02                   1_GWF-(1,129,33)     -0.12032841                   1_GWF-(1,212,64)
        667         15         36 -3.91945151E-02                   1_GWF-(1,131,33)     -0.11288466                   1_GWF-(1,212,64)
        668         15         37 -3.71927938E-02                   1_GWF-(1,134,32) -9.65915511E-02                   1_GWF-(1,212,64)
        669         16          1       2.4185979                   1_GWF-(1,279,54)      -26.702019                   1_GWF-(1,283,51)
        670         16          2      0.76680476                   1_GWF-(1,285,55)      -6.9432707                   1_GWF-(1,283,51)
        671         16          3      0.29016984                   1_GWF-(1,255,95)      -1.8292152                    1_GWF-(1,2,132)
        672         16          4      0.16281421                    1_GWF-(1,3,139)       1.1553447                      1_GWF-(1,2,4)
        673         16          5     -0.20595816                   1_GWF-(1,254,61)       1.5593290                   1_GWF-(1,284,57)
        674         16          6 -8.84822510E-02                   1_GWF-(1,255,95)       1.2121023                   1_GWF-(1,286,54)
        675         16          7     -0.33164598                   1_GWF-(1,114,11)       1.1337680                   1_GWF-(1,287,47)
        676         16          8     -0.55833776                   1_GWF-(1,117,11)       1.3268582                   1_GWF-(1,284,53)
        677         16          9     -0.75264282                   1_GWF-(1,119,11)       1.4318454                    1_GWF-(1,2,131)
        678         16         10      -1.0396326                   1_GWF-(1,122,14)       1.7485647                    1_GWF-(1,2,130)
        679         16         11      -1.2899679                   1_GWF-(1,124,16)       1.7996051                    1_GWF-(1,2,130)
        680         16         12      -1.2703959                   1_GWF-(1,127,21)       1.8912240                    1_GWF-(1,2,130)
        681         16         13      -1.4921104                   1_GWF-(1,130,23)       1.3185103                    1_GWF-(1,2,124)
        682         16         14      -1.7618459                   1_GWF-(1,133,24)      -1.1253241                   1_GWF-(1,212,64)
        683         16         15  5.22680040E-02                   1_GWF-(1,162,81)       1.2713909                    1_GWF-(1,2,127)
        684         16         16      -1.1502813                   1_GWF-(1,145,25)       1.0091223                    1_GWF-(1,2,127)
        685         16         17     -0.46060646                   1_GWF-(1,154,24)     -0.67764993                   1_GWF-(1,212,64)
        686         16         18     -0.28460007                   1_GWF-(1,170,13)     -0.50481456                   1_GWF-(1,212,64)
        687         16         19     -0.18599613                   1_GWF-(1,171,13)      0.43767643                      1_GWF-(1,2,4)
        688         16         20     -0.16943158                   1_GWF-(1,173,13)      0.41697200                    1_GWF-(1,2,119)
        689         16         21     -0.13961516                   1_GWF-(1,171,15)      0.33680545                      1_GWF-(1,2,4)
        690         16         22     -0.17874922                   1_GWF-(1,171,17)     -0.26905713                    1_GWF-(1,2,195)
        691         16         23       1.3906720                   1_GWF-(1,171,19)      0.93008428                      1_GWF-(1,2,4)
        692         16         24      -1.8383541                   1_GWF-(1,170,22)      0.31863874                   1_GWF-(1,269,47)
        693         16         25     -0.13825779                   1_GWF-(1,154,16)     -0.30759146                   1_GWF-(1,212,64)
        694         16         26     -0.15615410                    1_GWF-(1,166,7)     -0.28287302                   1_GWF-(1,212,64)
        695         16         27     -0.15025047                    1_GWF-(1,164,9)     -0.26326963                   1_GWF-(1,212,64)
        696         16         28     -0.12756813                   1_GWF-(1,164,15)     -0.21465105                   1_GWF-(1,212,64)
        697         16         29     -0.10140067                   1_GWF-(1,162,20)     -0.17956798                   1_GWF-(1,212,64)
        698         16         30     -0.11082481                   1_GWF-(1,162,27)      0.14756491                      1_GWF-(1,2,4)
        699         16         31     -0.14184217                   1_GWF-(1,160,29)      0.12349560                      1_GWF-(1,2,4)
        700         16         32  2.51194224E-02                   1_GWF-(1,262,54)     -0.12053415                   1_GWF-(1,267,43)
        701         16         33 -7.15687517E-02                   1_GWF-(1,149,16)  6.66617392E-02                    1_GWF-(1,122,4)
        702         17          1       1.7113514                   1_GWF-(1,279,54)      -15.512031                   1_GWF-(1,283,51)
        703         17          2      0.54665280                   1_GWF-(1,285,55)      -4.0972101                   1_GWF-(1,283,51)
        704         17          3      0.20400552                   1_GWF-(1,285,55)      -1.0552504                    1_GWF-(1,2,132)
        705         17          4      0.10271422                   1_GWF-(1,255,95)      0.60501421                      1_GWF-(1,2,4)
        706         17          5     -0.30557165                    1_GWF-(1,113,5)       1.3607264                   1_GWF-(1,284,57)
        707         17          6     -0.17019567                    1_GWF-(1,4,137)      0.58338191                      1_GWF-(1,2,4)
        708         17          7     -0.19582586                    1_GWF-(1,117,7)      0.56091568                      1_GWF-(1,2,4)
        709         17          8     -0.35637594                    1_GWF-(1,119,9)      0.57019276                   1_GWF-(1,284,53)
        710         17          9     -0.47425920                   1_GWF-(1,121,11)      0.53204878                    1_GWF-(1,2,131)
        711         17         10     -0.69998699                   1_GWF-(1,124,14)      0.85526794                    1_GWF-(1,2,130)
        712         17         11     -0.92140965                   1_GWF-(1,125,15)      0.78803698                    1_GWF-(1,2,130)
        713         17         12     -0.98565050                   1_GWF-(1,128,19)       1.0650332                    1_GWF-(1,2,130)
        714         17         13      -1.2089662                   1_GWF-(1,129,20)      0.69753053                    1_GWF-(1,2,124)
        715         17         14      -1.9596718                   1_GWF-(1,132,22)      0.60734828                    1_GWF-(1,2,117)
        716         17         15      0.21766125                    1_GWF-(1,104,6)      0.97199872                    1_GWF-(1,2,127)
        717         17         16     -0.93684006                   1_GWF-(1,139,22)      0.38904176                    1_GWF-(1,2,121)
        718         17         17     -0.45658689                   1_GWF-(1,155,19)      0.38611418                    1_GWF-(1,2,120)
        719         17         18     -0.24735395                   1_GWF-(1,158,18)      0.29688927                    1_GWF-(1,2,113)
        720         17         19     -0.15603455                   1_GWF-(1,169,18)      0.32296250                    1_GWF-(1,2,119)
        721         17         20     -0.10524905                   1_GWF-(1,170,19)      0.23916852                    1_GWF-(1,2,112)
        722         17         21 -7.74808606E-02                   1_GWF-(1,174,21)      0.22497960                    1_GWF-(1,2,113)
        723         17         22 -7.50705415E-02                   1_GWF-(1,175,21)      0.16585839                    1_GWF-(1,2,106)
        724         17         23  2.35487117E-02                   1_GWF-(1,176,20)      0.18680570                    1_GWF-(1,2,110)
        725         17         24     -0.15913018                    1_GWF-(1,2,102)      0.16988915                    1_GWF-(1,2,123)
        726         17         25 -3.47894957E-02                   1_GWF-(1,178,15)  7.08451539E-02                     1_GWF-(1,2,96)
        727         18          1       1.0049321                   1_GWF-(1,279,54)      -8.4131002                   1_GWF-(1,286,52)
        728         18          2      0.32323245                   1_GWF-(1,285,55)      -2.0214835                   1_GWF-(1,286,52)
        729         18          3      0.12272646                   1_GWF-(1,285,55)     -0.53512447                   1_GWF-(1,282,52)
        730         18          4  6.53396226E-02                   1_GWF-(1,285,54)      0.26420382                      1_GWF-(1,2,4)
        731         18          5  2.70060034E-02                    1_GWF-(1,142,4)     -0.31513782                    1_GWF-(1,2,135)
        732         18          6     -0.13028833                    1_GWF-(1,142,6)      0.25662578                      1_GWF-(1,2,4)
        733         18          7 -9.94725478E-02                    1_GWF-(1,142,7)      0.24941467                      1_GWF-(1,2,4)
        734         18          8     -0.18998744                   1_GWF-(1,143,11)      0.23931746                    1_GWF-(1,154,4)
        735         18          9     -0.25125721                   1_GWF-(1,144,13)      0.22691190                    1_GWF-(1,154,4)
        736         18         10     -0.38011797                   1_GWF-(1,145,19)      0.36277631                    1_GWF-(1,2,130)
        737         18         11     -0.50516886                   1_GWF-(1,145,20)      0.29437981                    1_GWF-(1,2,130)
        738         18         12     -0.57186320                   1_GWF-(1,146,23)      0.42739489                    1_GWF-(1,2,124)
        739         18         13     -0.74646037                   1_GWF-(1,146,23)      0.26478883                    1_GWF-(1,2,124)
        740         18         14      -2.5262840                   1_GWF-(1,146,24)     -0.26877688                   1_GWF-(1,212,64)
        741         18         15       1.3487347                   1_GWF-(1,144,23)      0.14750744                    1_GWF-(1,2,122)
        742         18         16     -0.59809609                   1_GWF-(1,147,20)      0.10225305                      1_GWF-(1,2,4)
        743         18         17     -0.32051002                   1_GWF-(1,148,19)  8.74648825E-02                    1_GWF-(1,2,127)
        744         18         18     -0.17571002                   1_GWF-(1,148,19)  7.68018785E-02                    1_GWF-(1,2,120)
        745         18         19     -0.10556980                   1_GWF-(1,147,20)  7.55988500E-02                    1_GWF-(1,2,120)
        746         18         20 -7.49059754E-02                   1_GWF-(1,144,21)  6.57785301E-02                    1_GWF-(1,2,120)
        747         19          1      0.40517753                   1_GWF-(1,279,54)      -3.2103892                   1_GWF-(1,286,52)
        748         19          2      0.12501840                   1_GWF-(1,285,55)     -0.78462715                   1_GWF-(1,286,52)
        749         19          3  4.77240331E-02                   1_GWF-(1,285,54)     -0.19851292                   1_GWF-(1,284,60)
        750         19          4  2.69721432E-02                   1_GWF-(1,285,54)      0.10664874                      1_GWF-(1,2,4)
        751         19          5 -4.70219092E-03                   1_GWF-(1,284,57)      0.10788352                      1_GWF-(1,2,4)
        752         19          6 -5.80436688E-02                    1_GWF-(1,127,7)      0.10369750                   1_GWF-(1,286,54)
        753         19          7 -6.68426367E-02                    1_GWF-(1,129,7)  9.28495748E-02                   1_GWF-(1,284,53)
        754         20          1  7.81190908E-02                   1_GWF-(1,279,54)     -0.60737460                   1_GWF-(1,286,52)
        755         20          2  2.16579052E-02                   1_GWF-(1,285,54)  9.54094520E-02                      1_GWF-(1,2,4)
 --------------------------------------------------------------------------------------------------------------------------------------


 UBDSV1 SAVING     FLOW-JA-FACE ON UNIT   1027 AT TIME STEP      1, STRESS PERIOD      1
 UBDSV06 SAVING       DATA-SPDIS IN MODEL FP_MF6_MODEL     PACKAGE NPF             CONNECTED TO MODEL FP_MF6_MODEL     PACKAGE NPF              ON UNIT   1027 AT TIME STEP      1, STRESS PERIOD      1
 UBDSV06 SAVING         DATA-SAT IN MODEL FP_MF6_MODEL     PACKAGE NPF             CONNECTED TO MODEL FP_MF6_MODEL     PACKAGE NPF              ON UNIT   1027 AT TIME STEP      1, STRESS PERIOD      1
 UBDSV06 SAVING              WEL IN MODEL FP_MF6_MODEL     PACKAGE FP_MF6_MODEL    CONNECTED TO MODEL FP_MF6_MODEL     PACKAGE WEL_0            ON UNIT   1027 AT TIME STEP      1, STRESS PERIOD      1
 UBDSV06 SAVING              RIV IN MODEL FP_MF6_MODEL     PACKAGE FP_MF6_MODEL    CONNECTED TO MODEL FP_MF6_MODEL     PACKAGE RIV_0            ON UNIT   1027 AT TIME STEP      1, STRESS PERIOD      1
 UBDSV06 SAVING              GHB IN MODEL FP_MF6_MODEL     PACKAGE FP_MF6_MODEL    CONNECTED TO MODEL FP_MF6_MODEL     PACKAGE GHB_0            ON UNIT   1027 AT TIME STEP      1, STRESS PERIOD      1
 UBDSV06 SAVING             RCHA IN MODEL FP_MF6_MODEL     PACKAGE FP_MF6_MODEL    CONNECTED TO MODEL FP_MF6_MODEL     PACKAGE RCHA_0           ON UNIT   1027 AT TIME STEP      1, STRESS PERIOD      1

 HEAD WILL BE SAVED ON UNIT 1028 AT END OF TIME STEP    1, STRESS PERIOD    1


  VOLUME BUDGET FOR ENTIRE MODEL AT END OF TIME STEP    1, STRESS PERIOD   1
  ---------------------------------------------------------------------------------------------------

     CUMULATIVE VOLUME      L**3       RATES FOR THIS TIME STEP      L**3/T          PACKAGE NAME    
     ------------------                 ------------------------                     ----------------

           IN:                                      IN:
           ---                                      ---
                 WEL =           0.0000                   WEL =           0.0000     WEL_0                            
                 RIV =           0.0000                   RIV =           0.0000     RIV_0                            
                 GHB =         223.1601                   GHB =         223.1601     GHB_0                            
                RCHA =        6132.5306                  RCHA =        6132.5306     RCHA_0                           

            TOTAL IN =        6355.6907              TOTAL IN =        6355.6907

          OUT:                                     OUT:
          ----                                     ----
                 WEL =        1314.2337                   WEL =        1314.2337     WEL_0                            
                 RIV =        6177.4591                   RIV =        6177.4591     RIV_0                            
                 GHB =         514.4109                   GHB =         514.4109     GHB_0                            
                RCHA =           0.0000                  RCHA =           0.0000     RCHA_0                           

           TOTAL OUT =        8006.1037             TOTAL OUT =        8006.1037

            IN - OUT =       -1650.4130              IN - OUT =       -1650.4130

 PERCENT DISCREPANCY =         -22.98     PERCENT DISCREPANCY =         -22.98




         TIME SUMMARY AT END OF TIME STEP    1 IN STRESS PERIOD    1
                    SECONDS     MINUTES      HOURS       DAYS        YEARS
                    -----------------------------------------------------------
   TIME STEP LENGTH  86400.      1440.0      24.000      1.0000     2.73785E-03
 STRESS PERIOD TIME  86400.      1440.0      24.000      1.0000     2.73785E-03
         TOTAL TIME  86400.      1440.0      24.000      1.0000     2.73785E-03


end timestep

